REMARK  4 active torsions:
REMARK  status: ('A' for Active; 'I' for Inactive)
REMARK    1  A    between atoms: C3_4329  and  C10_4336 
REMARK    2  A    between atoms: C10_4336  and  C1'_4337 
REMARK    3  A    between atoms: C4'_4340  and  N4'_4348 
REMARK    4  A    between atoms: N1'_4343  and  C11_4344 
ROOT
HETATM    1  C1' SU2 A1001       8.751   1.717  -8.855  1.00 54.37     0.000 A 
HETATM    2  C2' SU2 A1001      10.093   1.464  -9.109  1.00 58.87     0.002 A 
HETATM    3  C3' SU2 A1001      10.492   0.289  -9.748  1.00 60.77     0.017 A 
HETATM    4  C4' SU2 A1001       9.555  -0.660 -10.144  1.00 62.10     0.056 A 
HETATM    5  C5' SU2 A1001       8.211  -0.402  -9.884  1.00 57.95     0.017 A 
HETATM    6  C6' SU2 A1001       7.812   0.774  -9.247  1.00 56.28     0.002 A 
HETATM    7  CM  SU2 A1001       9.152   0.530  -9.498  1.00  0.00     0.000 AC
ENDROOT
BRANCH     1   8
HETATM    8  C10 SU2 A1001       8.350   3.008  -8.149  1.00 47.02     0.005 C 
BRANCH     8   9
HETATM    9  C3  SU2 A1001       7.721   3.140  -6.766  1.00 41.97     0.059 A 
HETATM   10  C2  SU2 A1001       6.951   2.237  -6.067  1.00 40.11     0.279 A 
HETATM   11  N1  SU2 A1001       6.612   2.748  -4.839  1.00 40.50    -0.208 NA
HETATM   12  O2  SU2 A1001       6.584   1.108  -6.395  1.00 36.41    -0.265 OA
HETATM   13  C8  SU2 A1001       7.138   4.008  -4.717  1.00 40.40     0.085 A 
HETATM   14  C9  SU2 A1001       7.842   4.293  -5.911  1.00 41.23     0.022 A 
HETATM   15  C7  SU2 A1001       7.070   4.917  -3.655  1.00 37.23     0.019 A 
HETATM   16  C4  SU2 A1001       8.491   5.532  -6.035  1.00 37.17     0.002 A 
HETATM   17  C5  SU2 A1001       8.426   6.429  -4.979  1.00 35.31     0.000 A 
HETATM   18  C6  SU2 A1001       7.724   6.114  -3.804  1.00 35.46     0.002 A 
HETATM   19  CM  SU2 A1001       7.782   5.216  -4.850  1.00  0.00     0.000 AC
ENDBRANCH   7   8
ENDBRANCH   1   7
BRANCH     4  20
HETATM   20  N4' SU2 A1001       9.959  -1.857 -10.797  1.00 66.39    -0.344 N 
HETATM   21  C3B SU2 A1001       8.955  -2.692 -11.518  1.00 68.84     0.126 C 
HETATM   22  C2B SU2 A1001       9.528  -3.666 -12.522  1.00 70.94     0.129 C 
HETATM   23  N1' SU2 A1001      10.700  -4.476 -12.060  1.00 73.20    -0.309 N 
HETATM   24  C6B SU2 A1001      11.708  -3.680 -11.270  1.00 71.32     0.129 C 
HETATM   25  C5B SU2 A1001      11.145  -2.636 -10.304  1.00 69.35     0.126 C 
BRANCH    23  26
HETATM   26  C11 SU2 A1001      11.076  -5.669 -12.761  1.00 76.38     0.313 C 
HETATM   27  O3  SU2 A1001      11.872  -6.536 -12.388  1.00 80.37    -0.262 OA
ENDBRANCH  21  24
ENDBRANCH   4  18
TORSDOF 4